<?xml version="1.0" encoding="UTF-8"?>

<!-- generated on 2025-10-15 12:25:24 by Eclipse SUMO netedit Version 1.24.0
<neteditConfiguration xmlns:xsi="http://www.w3.org/2001/XMLSchema-instance" xsi:noNamespaceSchemaLocation="http://sumo.dlr.de/xsd/neteditConfiguration.xsd">

    <input>
        <sumocfg-file value="C:\NIKOLA\SUMO\belgrade\belgrade_intersection.sumocfg"/>
        <route-files value="C:\NIKOLA\SUMO\belgrade\belgrade_intersection.rou.xml"/>
        <sumo-net-file value="C:\NIKOLA\SUMO\belgrade\belgrade_intersection.net.xml"/>
    </input>

    <output>
        <output-file value="C:\NIKOLA\SUMO\belgrade\belgrade_intersection.net.xml"/>
    </output>

    <processing>
        <geometry.min-radius.fix.railways value="false"/>
        <geometry.avoid-overlap value="false"/>
        <geometry.max-grade.fix value="false"/>
        <offset.disable-normalization value="true"/>
        <lefthand value="0"/>
    </processing>

    <junctions>
        <no-internal-links value="false"/>
        <no-turnarounds value="true"/>
        <junctions.corner-detail value="5"/>
        <junctions.limit-turn-speed value="5.50"/>
        <rectangular-lane-cut value="0"/>
    </junctions>

    <pedestrian>
        <walkingareas value="0"/>
    </pedestrian>

    <netedit>
        <new-network value="false"/>
        <ignore.additionalelements value="0"/>
        <ignore.routeelements value="0"/>
    </netedit>

</neteditConfiguration>
-->

<net version="1.20" junctionCornerDetail="5" limitTurnSpeed="5.50" avoidOverlap="0" xmlns:xsi="http://www.w3.org/2001/XMLSchema-instance" xsi:noNamespaceSchemaLocation="http://sumo.dlr.de/xsd/net_file.xsd">

    <location netOffset="0.00,0.00" convBoundary="-157.37,-73.57,140.86,76.86" origBoundary="-10000000000.00,-10000000000.00,10000000000.00,10000000000.00" projParameter="!"/>

    <edge id=":J16_0" function="internal">
        <lane id=":J16_0_0" index="0" disallow="pedestrian" speed="13.89" length="16.19" width="3.00" shape="-101.69,-35.08 -87.09,-29.07"/>
        <lane id=":J16_0_1" index="1" disallow="pedestrian" speed="13.89" length="16.19" width="3.00" shape="-102.78,-32.29 -87.95,-26.20"/>
        <lane id=":J16_0_2" index="2" disallow="pedestrian" speed="13.89" length="16.19" width="3.00" shape="-102.78,-32.29 -98.45,-29.95 -95.87,-27.56 -93.25,-25.30 -88.80,-23.32"/>
    </edge>
    <edge id=":J16_w0" function="walkingarea">
        <lane id=":J16_w0_0" index="0" allow="pedestrian" speed="2.78" length="15.58" width="2.00" shape="-86.67,-30.51 -86.10,-32.43 -100.42,-38.34 -101.14,-36.48"/>
    </edge>
    <edge id=":clusterJ17_J18_clusterJ1_J10_J13_J14_#4more_0" function="internal">
        <lane id=":clusterJ17_J18_clusterJ1_J10_J13_J14_#4more_0_0" index="0" disallow="pedestrian" speed="13.89" length="31.89" width="2.50" shape="5.10,9.81 -5.34,7.84 -14.71,7.08 -22.98,7.83 -26.34,9.02"/>
    </edge>
    <edge id=":clusterJ17_J18_clusterJ1_J10_J13_J14_#4more_1" function="internal">
        <lane id=":clusterJ17_J18_clusterJ1_J10_J13_J14_#4more_1_0" index="0" disallow="pedestrian" speed="13.89" length="38.34" width="3.00" shape="5.10,9.81 -32.16,0.48"/>
        <lane id=":clusterJ17_J18_clusterJ1_J10_J13_J14_#4more_1_1" index="1" disallow="pedestrian" speed="13.89" length="38.34" width="3.00" shape="5.71,6.88 -31.42,-2.43"/>
    </edge>
    <edge id=":clusterJ17_J18_clusterJ1_J10_J13_J14_#4more_13" function="internal">
        <lane id=":clusterJ17_J18_clusterJ1_J10_J13_J14_#4more_13_0" index="0" disallow="pedestrian" speed="13.89" length="4.05" width="2.50" shape="-26.34,9.02 -30.16,10.37"/>
    </edge>
    <edge id=":clusterJ17_J18_clusterJ1_J10_J13_J14_#4more_3" function="internal">
        <lane id=":clusterJ17_J18_clusterJ1_J10_J13_J14_#4more_3_0" index="0" disallow="pedestrian" speed="6.31" length="10.09" width="3.00" shape="4.19,-8.48 0.97,-5.91 0.40,-3.71 2.49,-1.89 3.38,-1.62"/>
    </edge>
    <edge id=":clusterJ17_J18_clusterJ1_J10_J13_J14_#4more_4" function="internal">
        <lane id=":clusterJ17_J18_clusterJ1_J10_J13_J14_#4more_4_0" index="0" disallow="pedestrian" speed="13.89" length="39.18" width="2.50" shape="4.19,-8.48 -30.16,10.37"/>
    </edge>
    <edge id=":clusterJ17_J18_clusterJ1_J10_J13_J14_#4more_5" function="internal">
        <lane id=":clusterJ17_J18_clusterJ1_J10_J13_J14_#4more_5_0" index="0" disallow="pedestrian" speed="13.89" length="33.07" width="3.00" shape="4.19,-8.48 -4.62,-4.11 -13.49,-1.64 -22.42,-1.08 -27.45,-1.83"/>
    </edge>
    <edge id=":clusterJ17_J18_clusterJ1_J10_J13_J14_#4more_14" function="internal">
        <lane id=":clusterJ17_J18_clusterJ1_J10_J13_J14_#4more_14_0" index="0" disallow="pedestrian" speed="6.31" length="4.02" width="3.00" shape="3.38,-1.62 7.22,-0.45"/>
    </edge>
    <edge id=":clusterJ17_J18_clusterJ1_J10_J13_J14_#4more_15" function="internal">
        <lane id=":clusterJ17_J18_clusterJ1_J10_J13_J14_#4more_15_0" index="0" disallow="pedestrian" speed="13.89" length="4.02" width="3.00" shape="-27.45,-1.83 -31.42,-2.43"/>
    </edge>
    <edge id=":clusterJ17_J18_clusterJ1_J10_J13_J14_#4more_6" function="internal">
        <lane id=":clusterJ17_J18_clusterJ1_J10_J13_J14_#4more_6_0" index="0" disallow="pedestrian" speed="13.89" length="28.33" width="2.50" shape="-29.02,-11.81 -18.82,-9.33 -10.15,-8.38 -3.01,-8.98 -1.20,-9.67"/>
    </edge>
    <edge id=":clusterJ17_J18_clusterJ1_J10_J13_J14_#4more_7" function="internal">
        <lane id=":clusterJ17_J18_clusterJ1_J10_J13_J14_#4more_7_0" index="0" disallow="pedestrian" speed="13.89" length="38.05" width="3.00" shape="-29.02,-11.81 7.22,-0.45"/>
        <lane id=":clusterJ17_J18_clusterJ1_J10_J13_J14_#4more_7_1" index="1" disallow="pedestrian" speed="13.89" length="38.05" width="3.00" shape="-29.76,-8.91 6.61,2.49"/>
    </edge>
    <edge id=":clusterJ17_J18_clusterJ1_J10_J13_J14_#4more_9" function="internal">
        <lane id=":clusterJ17_J18_clusterJ1_J10_J13_J14_#4more_9_0" index="0" disallow="pedestrian" speed="7.79" length="17.52" width="2.50" shape="-30.51,-6.00 -25.65,-2.95 -24.06,1.55 -25.60,6.37 -27.07,7.66"/>
    </edge>
    <edge id=":clusterJ17_J18_clusterJ1_J10_J13_J14_#4more_16" function="internal">
        <lane id=":clusterJ17_J18_clusterJ1_J10_J13_J14_#4more_16_0" index="0" disallow="pedestrian" speed="13.89" length="4.06" width="2.50" shape="-1.20,-9.67 2.60,-11.12"/>
    </edge>
    <edge id=":clusterJ17_J18_clusterJ1_J10_J13_J14_#4more_17" function="internal">
        <lane id=":clusterJ17_J18_clusterJ1_J10_J13_J14_#4more_17_0" index="0" disallow="pedestrian" speed="7.79" length="4.11" width="2.50" shape="-27.07,7.66 -30.16,10.37"/>
    </edge>
    <edge id=":clusterJ17_J18_clusterJ1_J10_J13_J14_#4more_10" function="internal">
        <lane id=":clusterJ17_J18_clusterJ1_J10_J13_J14_#4more_10_0" index="0" disallow="pedestrian" speed="6.08" length="1.94" width="3.00" shape="-31.32,8.18 -29.72,7.08"/>
    </edge>
    <edge id=":clusterJ17_J18_clusterJ1_J10_J13_J14_#4more_11" function="internal">
        <lane id=":clusterJ17_J18_clusterJ1_J10_J13_J14_#4more_11_0" index="0" disallow="pedestrian" speed="13.89" length="39.03" width="2.50" shape="-31.32,8.18 2.60,-11.12"/>
    </edge>
    <edge id=":clusterJ17_J18_clusterJ1_J10_J13_J14_#4more_12" function="internal">
        <lane id=":clusterJ17_J18_clusterJ1_J10_J13_J14_#4more_12_0" index="0" disallow="pedestrian" speed="13.89" length="35.03" width="3.00" shape="-31.32,8.18 -23.74,4.87 -14.56,2.42 -4.27,1.43 2.61,2.10"/>
    </edge>
    <edge id=":clusterJ17_J18_clusterJ1_J10_J13_J14_#4more_18" function="internal">
        <lane id=":clusterJ17_J18_clusterJ1_J10_J13_J14_#4more_18_0" index="0" disallow="pedestrian" speed="6.08" length="11.08" width="3.00" shape="-29.72,7.08 -27.83,5.80 -26.80,3.72 -28.24,1.95 -32.16,0.48"/>
    </edge>
    <edge id=":clusterJ17_J18_clusterJ1_J10_J13_J14_#4more_19" function="internal">
        <lane id=":clusterJ17_J18_clusterJ1_J10_J13_J14_#4more_19_0" index="0" disallow="pedestrian" speed="13.89" length="4.02" width="3.00" shape="2.61,2.10 6.61,2.49"/>
    </edge>
    <edge id=":clusterJ17_J18_clusterJ1_J10_J13_J14_#4more_c0" function="crossing" crossingEdges="E3">
        <lane id=":clusterJ17_J18_clusterJ1_J10_J13_J14_#4more_c0_0" index="0" allow="pedestrian" speed="2.78" length="6.00" width="4.00" shape="4.09,4.97 2.81,10.83" outlineShape="6.04,5.40 4.77,11.26 0.89,10.29 2.13,4.55 6.06,5.30 2.13,4.55"/>
    </edge>
    <edge id=":clusterJ17_J18_clusterJ1_J10_J13_J14_#4more_c1" function="crossing" crossingEdges="E2.30">
        <lane id=":clusterJ17_J18_clusterJ1_J10_J13_J14_#4more_c1_0" index="0" allow="pedestrian" speed="2.78" length="6.00" width="4.00" shape="5.57,-2.32 4.35,3.55" outlineShape="7.53,-1.92 6.31,3.96 6.04,5.40 2.13,4.55 2.39,3.15 3.70,-3.17 5.02,-2.57"/>
    </edge>
    <edge id=":clusterJ17_J18_clusterJ1_J10_J13_J14_#4more_c2" function="crossing" crossingEdges="E7 E6">
        <lane id=":clusterJ17_J18_clusterJ1_J10_J13_J14_#4more_c2_0" index="0" allow="pedestrian" speed="2.78" length="5.59" width="4.00" shape="0.24,-11.16 3.13,-6.37" outlineShape="1.95,-12.20 4.84,-7.41 4.88,-7.32 4.83,-7.41 3.23,-6.24 2.44,-5.16 2.48,-4.20 2.75,-3.93 1.41,-5.34 -1.47,-10.13 -1.78,-10.65 -1.37,-10.73"/>
    </edge>
    <edge id=":clusterJ17_J18_clusterJ1_J10_J13_J14_#4more_c3" function="crossing" crossingEdges="E0.77">
        <lane id=":clusterJ17_J18_clusterJ1_J10_J13_J14_#4more_c3_0" index="0" allow="pedestrian" speed="2.78" length="9.00" width="4.00" shape="-29.02,-3.99 -26.68,-12.68" outlineShape="-30.98,-4.41 -28.58,-13.30 -24.73,-12.21 -27.09,-3.47 -30.95,-4.51 -27.09,-3.47"/>
    </edge>
    <edge id=":clusterJ17_J18_clusterJ1_J10_J13_J14_#4more_c4" function="crossing" crossingEdges="E1">
        <lane id=":clusterJ17_J18_clusterJ1_J10_J13_J14_#4more_c4_0" index="0" allow="pedestrian" speed="2.78" length="6.00" width="4.00" shape="-30.60,2.43 -29.11,-3.39" outlineShape="-32.56,2.03 -31.05,-3.88 -27.17,-2.89 -31.05,-3.88 -27.17,-2.89 -28.95,4.05 -29.39,3.29 -30.59,2.57"/>
    </edge>
    <edge id=":clusterJ17_J18_clusterJ1_J10_J13_J14_#4more_c5" function="crossing" crossingEdges="E5 E4">
        <lane id=":clusterJ17_J18_clusterJ1_J10_J13_J14_#4more_c5_0" index="0" allow="pedestrian" speed="2.78" length="4.98" width="4.00" shape="-27.80,10.53 -30.15,6.13" outlineShape="-29.57,11.47 -31.92,7.07 -31.96,6.98 -31.91,7.07 -30.18,5.99 -29.18,5.00 -28.93,4.16 -25.93,9.78"/>
    </edge>
    <edge id=":clusterJ17_J18_clusterJ1_J10_J13_J14_#4more_w0" function="walkingarea">
        <lane id=":clusterJ17_J18_clusterJ1_J10_J13_J14_#4more_w0_0" index="0" allow="pedestrian" speed="2.78" length="22.20" width="4.00" shape="-29.57,11.47 -28.63,13.23 4.37,13.24 4.81,11.29 -2.54,9.41 -8.21,7.84 -13.00,6.92 -17.66,6.98 -22.93,8.38"/>
    </edge>
    <edge id=":clusterJ17_J18_clusterJ1_J10_J13_J14_#4more_w1" function="walkingarea">
        <lane id=":clusterJ17_J18_clusterJ1_J10_J13_J14_#4more_w1_0" index="0" allow="pedestrian" speed="2.78" length="3.93" width="4.00" shape="7.53,-1.92 7.93,-3.87 5.87,-5.70 4.83,-7.41 3.23,-6.24 2.44,-5.16 2.48,-4.20 3.34,-3.33 5.02,-2.57"/>
    </edge>
    <edge id=":clusterJ17_J18_clusterJ1_J10_J13_J14_#4more_w2" function="walkingarea">
        <lane id=":clusterJ17_J18_clusterJ1_J10_J13_J14_#4more_w2_0" index="0" allow="pedestrian" speed="2.78" length="19.72" width="4.00" shape="1.96,-12.19 0.93,-13.91 -28.12,-15.20 -28.69,-13.28 -28.61,-13.20 -21.74,-11.44 -15.59,-10.28 -10.15,-9.78 -5.41,-9.93 -1.37,-10.73"/>
    </edge>
    <edge id=":clusterJ17_J18_clusterJ1_J10_J13_J14_#4more_w3" function="walkingarea">
        <lane id=":clusterJ17_J18_clusterJ1_J10_J13_J14_#4more_w3_0" index="0" allow="pedestrian" speed="2.78" length="3.31" width="4.00" shape="-32.54,1.93 -33.03,3.87 -32.86,5.31 -31.91,7.07 -30.18,5.99 -29.18,5.00 -28.92,4.10 -29.39,3.29 -30.59,2.57"/>
    </edge>
    <edge id=":clusterJ17_J18_clusterJ1_J10_J13_J14_#4more_w4" function="walkingarea">
        <lane id=":clusterJ17_J18_clusterJ1_J10_J13_J14_#4more_w4_0" index="0" allow="pedestrian" speed="2.78" length="1.44" width="4.00" shape="2.39,3.15 6.31,3.96 6.04,5.40 2.13,4.55"/>
    </edge>
    <edge id=":clusterJ17_J18_clusterJ1_J10_J13_J14_#4more_w5" function="walkingarea">
        <lane id=":clusterJ17_J18_clusterJ1_J10_J13_J14_#4more_w5_0" index="0" allow="pedestrian" speed="2.78" length="0.61" width="4.00" shape="-27.17,-2.89 -31.05,-3.88 -30.95,-4.51 -27.09,-3.47"/>
    </edge>

    <edge id="E0" from="J0" to="J16" priority="-1" shape="-152.08,-49.88 -103.32,-30.89">
        <lane id="E0_0" index="0" allow="pedestrian" speed="13.89" length="52.33" width="2.00" shape="-149.54,-56.40 -100.78,-37.41"/>
        <lane id="E0_1" index="1" disallow="pedestrian" speed="13.89" length="52.33" width="3.00" shape="-150.45,-54.07 -101.69,-35.08"/>
        <lane id="E0_2" index="2" disallow="pedestrian" speed="13.89" length="52.33" width="3.00" shape="-151.54,-51.28 -102.78,-32.29"/>
    </edge>
    <edge id="E0.77" from="J16" to="clusterJ17_J18_clusterJ1_J10_J13_J14_#4more" priority="-1" shape="-81.48,-19.58 -14.18,0.42">
        <lane id="E0.77_0" index="0" allow="pedestrian" speed="13.89" length="60.64" width="2.00" shape="-86.38,-31.47 -28.40,-14.24"/>
        <lane id="E0.77_1" index="1" disallow="pedestrian" speed="13.89" length="60.64" width="3.00" shape="-87.09,-29.07 -29.02,-11.81"/>
        <lane id="E0.77_2" index="2" disallow="pedestrian" speed="13.89" length="60.64" width="3.00" shape="-87.95,-26.20 -29.76,-8.91"/>
        <lane id="E0.77_3" index="3" disallow="pedestrian" speed="13.89" length="60.64" width="3.00" shape="-88.80,-23.32 -30.51,-6.00"/>
    </edge>
    <edge id="E1" from="clusterJ17_J18_clusterJ1_J10_J13_J14_#4more" to="J3" priority="-1" shape="-14.18,0.42 -59.78,-11.20 -88.78,-20.68 -151.99,-42.83">
        <lane id="E1_0" index="0" allow="pedestrian" speed="13.89" length="127.51" width="2.00" shape="-32.78,2.90 -61.73,-4.47 -91.03,-14.05 -154.30,-36.22"/>
        <lane id="E1_1" index="1" disallow="pedestrian" speed="13.89" length="127.51" width="3.00" shape="-32.16,0.48 -61.04,-6.88 -90.22,-16.42 -153.48,-38.58"/>
        <lane id="E1_2" index="2" disallow="pedestrian" speed="13.89" length="127.51" width="3.00" shape="-31.42,-2.43 -60.20,-9.76 -89.26,-19.26 -152.49,-41.41"/>
    </edge>
    <edge id="E2.30" from="clusterJ17_J18_clusterJ1_J10_J13_J14_#4more" to="J5" priority="-1" shape="6.31,3.96 130.50,29.69">
        <lane id="E2.30_0" index="0" allow="pedestrian" speed="13.89" length="126.83" width="2.00" shape="7.73,-2.89 131.92,22.84"/>
        <lane id="E2.30_1" index="1" disallow="pedestrian" speed="13.89" length="126.83" width="3.00" shape="7.22,-0.45 131.41,25.28"/>
        <lane id="E2.30_2" index="2" disallow="pedestrian" speed="13.89" length="126.83" width="3.00" shape="6.61,2.49 130.80,28.22"/>
    </edge>
    <edge id="E3" from="J6" to="clusterJ17_J18_clusterJ1_J10_J13_J14_#4more" priority="-1" shape="140.86,36.05 4.92,5.16 -14.18,0.42">
        <lane id="E3_0" index="0" allow="pedestrian" speed="13.89" length="138.20" width="2.00" shape="139.31,42.88 4.59,12.26"/>
        <lane id="E3_1" index="1" disallow="pedestrian" speed="13.89" length="138.20" width="3.00" shape="139.86,40.44 5.10,9.81"/>
        <lane id="E3_2" index="2" disallow="pedestrian" speed="13.89" length="138.20" width="3.00" shape="140.53,37.51 5.71,6.88"/>
    </edge>
    <edge id="E4" from="J8" to="clusterJ17_J18_clusterJ1_J10_J13_J14_#4more" priority="-1" shape="-139.22,67.33 -14.18,0.42">
        <lane id="E4_0" index="0" allow="pedestrian" speed="13.89" length="123.04" width="2.00" shape="-140.87,64.24 -32.38,6.19"/>
        <lane id="E4_1" index="1" disallow="pedestrian" speed="13.89" length="123.04" width="2.50" shape="-139.81,66.23 -31.32,8.18"/>
    </edge>
    <edge id="E5" from="clusterJ17_J18_clusterJ1_J10_J13_J14_#4more" to="J11" priority="-1" shape="-14.18,0.42 -157.37,76.86">
        <lane id="E5_0" index="0" allow="pedestrian" speed="13.89" length="143.54" width="2.00" shape="-29.10,12.35 -155.72,79.95"/>
        <lane id="E5_1" index="1" disallow="pedestrian" speed="13.89" length="143.54" width="2.50" shape="-30.16,10.37 -156.78,77.96"/>
    </edge>
    <edge id="E6" from="J12" to="clusterJ17_J18_clusterJ1_J10_J13_J14_#4more" priority="-1" shape="104.14,-70.69 6.27,-11.21">
        <lane id="E6_0" index="0" allow="pedestrian" speed="13.89" length="117.73" width="2.00" shape="105.96,-67.70 5.35,-6.55"/>
        <lane id="E6_1" index="1" disallow="pedestrian" speed="13.89" length="117.73" width="2.50" shape="104.79,-69.62 4.19,-8.48"/>
    </edge>
    <edge id="E7" from="clusterJ17_J18_clusterJ1_J10_J13_J14_#4more" to="J15" priority="-1" shape="-14.18,0.42 108.93,-73.57">
        <lane id="E7_0" index="0" allow="pedestrian" speed="13.89" length="123.31" width="2.00" shape="1.44,-13.05 107.13,-76.57"/>
        <lane id="E7_1" index="1" disallow="pedestrian" speed="13.89" length="123.31" width="2.50" shape="2.60,-11.12 108.29,-74.64"/>
    </edge>

    <tlLogic id="J1" type="static" programID="0" offset="0">
        <phase duration="3"  state="GGGrrrGGGrrrrrrGrrr"/>
        <phase duration="31" state="GGGrrrGGGrrrrrrGrrG"/>
        <phase duration="6"  state="GGGrrrGGGrrrrrrGrrr"/>
        <phase duration="3"  state="yyyrrryyyrrrrrrrrrr"/>
        <phase duration="7"  state="rrrrrrrrrrrrrrrrrrr"/>
        <phase duration="43" state="rrrGGGrrrrGGGGGrGGr"/>
        <phase duration="3"  state="rrryyyrrrryyyGrrrGr"/>
        <phase duration="3"  state="rrrrrrrrrrrrrGrrrGr"/>
        <phase duration="16" state="rrrrrrGGGGrrrGrGrGr"/>
        <phase duration="3"  state="rrrrrrGGGyrrrrrGrrr"/>
        <phase duration="2"  state="rrrrrrGGGrrrrrrGrrr"/>
    </tlLogic>

    <junction id="J0" type="dead_end" x="-152.08" y="-49.88" incLanes="" intLanes="" shape="-152.08,-49.88 -149.18,-57.33"/>
    <junction id="J11" type="dead_end" x="-157.37" y="76.86" incLanes="E5_0 E5_1" intLanes="" shape="-155.25,80.83 -157.37,76.86"/>
    <junction id="J12" type="dead_end" x="104.14" y="-70.69" incLanes="" intLanes="" shape="104.14,-70.69 106.48,-66.84"/>
    <junction id="J15" type="dead_end" x="108.93" y="-73.57" incLanes="E7_0 E7_1" intLanes="" shape="106.61,-77.43 108.93,-73.57"/>
    <junction id="J16" type="priority" x="-81.48" y="-19.58" incLanes="E0_0 E0_1 E0_2" intLanes=":J16_0_0 :J16_0_1 :J16_0_2" shape="-89.23,-21.88 -86.10,-32.43 -89.23,-33.44 -91.50,-34.32 -93.33,-35.16 -95.15,-36.05 -97.36,-37.08 -100.42,-38.34 -103.32,-30.89 -100.13,-29.33 -97.98,-27.74 -96.36,-26.14 -94.71,-24.60 -92.51,-23.17">
        <request index="0" response="000" foes="000" cont="0"/>
        <request index="1" response="000" foes="000" cont="0"/>
        <request index="2" response="000" foes="000" cont="0"/>
    </junction>
    <junction id="J2" type="dead_end" x="76.73" y="20.40" incLanes="" intLanes="" shape="76.73,20.40"/>
    <junction id="J3" type="dead_end" x="-151.99" y="-42.83" incLanes="E1_0 E1_1 E1_2" intLanes="" shape="-154.64,-35.28 -151.99,-42.83"/>
    <junction id="J5" type="dead_end" x="130.50" y="29.69" incLanes="E2.30_0 E2.30_1 E2.30_2" intLanes="" shape="132.12,21.86 130.50,29.69"/>
    <junction id="J6" type="dead_end" x="140.86" y="36.05" incLanes="" intLanes="" shape="140.86,36.05 139.09,43.85"/>
    <junction id="J8" type="dead_end" x="-139.22" y="67.33" incLanes="" intLanes="" shape="-139.22,67.33 -141.34,63.36"/>
    <junction id="clusterJ17_J18_clusterJ1_J10_J13_J14_#4more" type="traffic_light" x="-0.53" y="-2.28" incLanes="E3_0 E3_1 E3_2 E6_0 E6_1 E0.77_0 E0.77_1 E0.77_2 E0.77_3 E4_0 E4_1 :clusterJ17_J18_clusterJ1_J10_J13_J14_#4more_w4_0 :clusterJ17_J18_clusterJ1_J10_J13_J14_#4more_w1_0 :clusterJ17_J18_clusterJ1_J10_J13_J14_#4more_w2_0 :clusterJ17_J18_clusterJ1_J10_J13_J14_#4more_w5_0 :clusterJ17_J18_clusterJ1_J10_J13_J14_#4more_w3_0 :clusterJ17_J18_clusterJ1_J10_J13_J14_#4more_w0_0" intLanes=":clusterJ17_J18_clusterJ1_J10_J13_J14_#4more_13_0 :clusterJ17_J18_clusterJ1_J10_J13_J14_#4more_1_0 :clusterJ17_J18_clusterJ1_J10_J13_J14_#4more_1_1 :clusterJ17_J18_clusterJ1_J10_J13_J14_#4more_14_0 :clusterJ17_J18_clusterJ1_J10_J13_J14_#4more_4_0 :clusterJ17_J18_clusterJ1_J10_J13_J14_#4more_15_0 :clusterJ17_J18_clusterJ1_J10_J13_J14_#4more_16_0 :clusterJ17_J18_clusterJ1_J10_J13_J14_#4more_7_0 :clusterJ17_J18_clusterJ1_J10_J13_J14_#4more_7_1 :clusterJ17_J18_clusterJ1_J10_J13_J14_#4more_17_0 :clusterJ17_J18_clusterJ1_J10_J13_J14_#4more_18_0 :clusterJ17_J18_clusterJ1_J10_J13_J14_#4more_11_0 :clusterJ17_J18_clusterJ1_J10_J13_J14_#4more_19_0 :clusterJ17_J18_clusterJ1_J10_J13_J14_#4more_c0_0 :clusterJ17_J18_clusterJ1_J10_J13_J14_#4more_c1_0 :clusterJ17_J18_clusterJ1_J10_J13_J14_#4more_c2_0 :clusterJ17_J18_clusterJ1_J10_J13_J14_#4more_c3_0 :clusterJ17_J18_clusterJ1_J10_J13_J14_#4more_c4_0 :clusterJ17_J18_clusterJ1_J10_J13_J14_#4more_c5_0" shape="4.39,13.24 7.93,-3.87 6.02,-4.42 5.52,-4.72 5.33,-5.03 5.44,-5.36 5.86,-5.70 0.93,-13.91 -2.15,-12.58 -5.94,-11.87 -10.43,-11.78 -15.63,-12.30 -21.54,-13.45 -28.15,-15.21 -33.03,3.87 -32.15,4.25 -32.02,4.48 -32.09,4.73 -32.37,5.01 -32.86,5.31 -28.63,13.23 -22.24,10.28 -17.17,8.97 -12.70,8.95 -8.09,9.89 -2.64,11.43">
        <request index="0"  response="1000010001000000000" foes="1000010001000010000" cont="1"/>
        <request index="1"  response="0100011011000100000" foes="0100011111000110000" cont="0"/>
        <request index="2"  response="0100011011000100000" foes="0100011111000110000" cont="0"/>
        <request index="3"  response="0001100000110000000" foes="0001100000110000000" cont="1"/>
        <request index="4"  response="1001001001110000111" foes="1001001001110000111" cont="0"/>
        <request index="5"  response="0101000101110000110" foes="0101000101110000110" cont="1"/>
        <request index="6"  response="0011000000000000000" foes="0011000100000000000" cont="1"/>
        <request index="7"  response="0010101000000101000" foes="0010101100000111000" cont="0"/>
        <request index="8"  response="0010101000000101000" foes="0010101100000111000" cont="0"/>
        <request index="9"  response="1010001000000100111" foes="1010001100000110111" cont="1"/>
        <request index="10" response="1100000000000000110" foes="1100000000000000110" cont="1"/>
        <request index="11" response="1001000001111100110" foes="1001000001111100110" cont="0"/>
        <request index="12" response="1000100001110010110" foes="1000100001110010110" cont="1"/>
        <request index="13" response="0000000000000000000" foes="0000000000000000111" cont="0"/>
        <request index="14" response="0000000000000000000" foes="0000001000110001000" cont="0"/>
        <request index="15" response="0000000000000000000" foes="0000000100001111000" cont="0"/>
        <request index="16" response="0000000000000000000" foes="0000000001111000000" cont="0"/>
        <request index="17" response="0000000000000000000" foes="0000000010000100110" cont="0"/>
        <request index="18" response="0000000000000000000" foes="0000001111000010001" cont="0"/>
    </junction>

    <junction id=":clusterJ17_J18_clusterJ1_J10_J13_J14_#4more_13_0" type="internal" x="-26.34" y="9.02" incLanes=":clusterJ17_J18_clusterJ1_J10_J13_J14_#4more_0_0" intLanes=":clusterJ17_J18_clusterJ1_J10_J13_J14_#4more_4_0 :clusterJ17_J18_clusterJ1_J10_J13_J14_#4more_9_0 :clusterJ17_J18_clusterJ1_J10_J13_J14_#4more_c0_0 :clusterJ17_J18_clusterJ1_J10_J13_J14_#4more_c5_0"/>
    <junction id=":clusterJ17_J18_clusterJ1_J10_J13_J14_#4more_14_0" type="internal" x="3.38" y="-1.62" incLanes=":clusterJ17_J18_clusterJ1_J10_J13_J14_#4more_3_0" intLanes=":clusterJ17_J18_clusterJ1_J10_J13_J14_#4more_7_0 :clusterJ17_J18_clusterJ1_J10_J13_J14_#4more_7_1 :clusterJ17_J18_clusterJ1_J10_J13_J14_#4more_12_0 :clusterJ17_J18_clusterJ1_J10_J13_J14_#4more_c1_0 :clusterJ17_J18_clusterJ1_J10_J13_J14_#4more_c2_0"/>
    <junction id=":clusterJ17_J18_clusterJ1_J10_J13_J14_#4more_15_0" type="internal" x="-27.45" y="-1.83" incLanes=":clusterJ17_J18_clusterJ1_J10_J13_J14_#4more_5_0" intLanes=":clusterJ17_J18_clusterJ1_J10_J13_J14_#4more_1_0 :clusterJ17_J18_clusterJ1_J10_J13_J14_#4more_1_1 :clusterJ17_J18_clusterJ1_J10_J13_J14_#4more_7_0 :clusterJ17_J18_clusterJ1_J10_J13_J14_#4more_7_1 :clusterJ17_J18_clusterJ1_J10_J13_J14_#4more_9_0 :clusterJ17_J18_clusterJ1_J10_J13_J14_#4more_10_0 :clusterJ17_J18_clusterJ1_J10_J13_J14_#4more_11_0 :clusterJ17_J18_clusterJ1_J10_J13_J14_#4more_c2_0 :clusterJ17_J18_clusterJ1_J10_J13_J14_#4more_c4_0"/>
    <junction id=":clusterJ17_J18_clusterJ1_J10_J13_J14_#4more_16_0" type="internal" x="-1.20" y="-9.67" incLanes=":clusterJ17_J18_clusterJ1_J10_J13_J14_#4more_6_0" intLanes=":clusterJ17_J18_clusterJ1_J10_J13_J14_#4more_11_0 :clusterJ17_J18_clusterJ1_J10_J13_J14_#4more_c2_0 :clusterJ17_J18_clusterJ1_J10_J13_J14_#4more_c3_0"/>
    <junction id=":clusterJ17_J18_clusterJ1_J10_J13_J14_#4more_17_0" type="internal" x="-27.07" y="7.66" incLanes=":clusterJ17_J18_clusterJ1_J10_J13_J14_#4more_9_0" intLanes=":clusterJ17_J18_clusterJ1_J10_J13_J14_#4more_0_0 :clusterJ17_J18_clusterJ1_J10_J13_J14_#4more_1_0 :clusterJ17_J18_clusterJ1_J10_J13_J14_#4more_1_1 :clusterJ17_J18_clusterJ1_J10_J13_J14_#4more_4_0 :clusterJ17_J18_clusterJ1_J10_J13_J14_#4more_5_0 :clusterJ17_J18_clusterJ1_J10_J13_J14_#4more_11_0 :clusterJ17_J18_clusterJ1_J10_J13_J14_#4more_12_0 :clusterJ17_J18_clusterJ1_J10_J13_J14_#4more_c3_0 :clusterJ17_J18_clusterJ1_J10_J13_J14_#4more_c5_0"/>
    <junction id=":clusterJ17_J18_clusterJ1_J10_J13_J14_#4more_18_0" type="internal" x="-29.72" y="7.08" incLanes=":clusterJ17_J18_clusterJ1_J10_J13_J14_#4more_10_0" intLanes=":clusterJ17_J18_clusterJ1_J10_J13_J14_#4more_1_0 :clusterJ17_J18_clusterJ1_J10_J13_J14_#4more_1_1 :clusterJ17_J18_clusterJ1_J10_J13_J14_#4more_5_0 :clusterJ17_J18_clusterJ1_J10_J13_J14_#4more_c4_0 :clusterJ17_J18_clusterJ1_J10_J13_J14_#4more_c5_0"/>
    <junction id=":clusterJ17_J18_clusterJ1_J10_J13_J14_#4more_19_0" type="internal" x="2.61" y="2.10" incLanes=":clusterJ17_J18_clusterJ1_J10_J13_J14_#4more_12_0" intLanes=":clusterJ17_J18_clusterJ1_J10_J13_J14_#4more_1_0 :clusterJ17_J18_clusterJ1_J10_J13_J14_#4more_1_1 :clusterJ17_J18_clusterJ1_J10_J13_J14_#4more_3_0 :clusterJ17_J18_clusterJ1_J10_J13_J14_#4more_4_0 :clusterJ17_J18_clusterJ1_J10_J13_J14_#4more_7_0 :clusterJ17_J18_clusterJ1_J10_J13_J14_#4more_7_1 :clusterJ17_J18_clusterJ1_J10_J13_J14_#4more_9_0 :clusterJ17_J18_clusterJ1_J10_J13_J14_#4more_c1_0 :clusterJ17_J18_clusterJ1_J10_J13_J14_#4more_c5_0"/>

    <connection from="E0" to="E0.77" fromLane="1" toLane="1" via=":J16_0_0" dir="s" state="M"/>
    <connection from="E0" to="E0.77" fromLane="2" toLane="2" via=":J16_0_1" dir="s" state="M"/>
    <connection from="E0" to="E0.77" fromLane="2" toLane="3" via=":J16_0_2" dir="s" state="M"/>
    <connection from="E0.77" to="E7" fromLane="1" toLane="1" via=":clusterJ17_J18_clusterJ1_J10_J13_J14_#4more_6_0" tl="J1" linkIndex="6" dir="r" state="o"/>
    <connection from="E0.77" to="E2.30" fromLane="1" toLane="1" via=":clusterJ17_J18_clusterJ1_J10_J13_J14_#4more_7_0" tl="J1" linkIndex="7" dir="s" state="o"/>
    <connection from="E0.77" to="E2.30" fromLane="2" toLane="2" via=":clusterJ17_J18_clusterJ1_J10_J13_J14_#4more_7_1" tl="J1" linkIndex="8" dir="s" state="o"/>
    <connection from="E0.77" to="E5" fromLane="3" toLane="1" via=":clusterJ17_J18_clusterJ1_J10_J13_J14_#4more_9_0" tl="J1" linkIndex="9" dir="l" state="o"/>
    <connection from="E3" to="E5" fromLane="1" toLane="1" via=":clusterJ17_J18_clusterJ1_J10_J13_J14_#4more_0_0" tl="J1" linkIndex="0" dir="R" state="o"/>
    <connection from="E3" to="E1" fromLane="1" toLane="1" via=":clusterJ17_J18_clusterJ1_J10_J13_J14_#4more_1_0" tl="J1" linkIndex="1" dir="s" state="o"/>
    <connection from="E3" to="E1" fromLane="2" toLane="2" via=":clusterJ17_J18_clusterJ1_J10_J13_J14_#4more_1_1" tl="J1" linkIndex="2" dir="s" state="o"/>
    <connection from="E4" to="E1" fromLane="1" toLane="1" via=":clusterJ17_J18_clusterJ1_J10_J13_J14_#4more_10_0" tl="J1" linkIndex="10" dir="r" state="o"/>
    <connection from="E4" to="E7" fromLane="1" toLane="1" via=":clusterJ17_J18_clusterJ1_J10_J13_J14_#4more_11_0" tl="J1" linkIndex="11" dir="s" state="o"/>
    <connection from="E4" to="E2.30" fromLane="1" toLane="2" via=":clusterJ17_J18_clusterJ1_J10_J13_J14_#4more_12_0" tl="J1" linkIndex="12" dir="L" state="o"/>
    <connection from="E6" to="E2.30" fromLane="1" toLane="1" via=":clusterJ17_J18_clusterJ1_J10_J13_J14_#4more_3_0" tl="J1" linkIndex="3" dir="r" state="o"/>
    <connection from="E6" to="E5" fromLane="1" toLane="1" via=":clusterJ17_J18_clusterJ1_J10_J13_J14_#4more_4_0" tl="J1" linkIndex="4" dir="s" state="o"/>
    <connection from="E6" to="E1" fromLane="1" toLane="2" via=":clusterJ17_J18_clusterJ1_J10_J13_J14_#4more_5_0" tl="J1" linkIndex="5" dir="l" state="o"/>

    <connection from=":J16_0" to="E0.77" fromLane="0" toLane="1" dir="s" state="M"/>
    <connection from=":J16_0" to="E0.77" fromLane="1" toLane="2" dir="s" state="M"/>
    <connection from=":J16_0" to="E0.77" fromLane="2" toLane="3" dir="s" state="M"/>
    <connection from=":clusterJ17_J18_clusterJ1_J10_J13_J14_#4more_0" to="E5" fromLane="0" toLane="1" via=":clusterJ17_J18_clusterJ1_J10_J13_J14_#4more_13_0" dir="R" state="m"/>
    <connection from=":clusterJ17_J18_clusterJ1_J10_J13_J14_#4more_13" to="E5" fromLane="0" toLane="1" dir="R" state="m"/>
    <connection from=":clusterJ17_J18_clusterJ1_J10_J13_J14_#4more_1" to="E1" fromLane="0" toLane="1" dir="s" state="M"/>
    <connection from=":clusterJ17_J18_clusterJ1_J10_J13_J14_#4more_1" to="E1" fromLane="1" toLane="2" dir="s" state="M"/>
    <connection from=":clusterJ17_J18_clusterJ1_J10_J13_J14_#4more_3" to="E2.30" fromLane="0" toLane="1" via=":clusterJ17_J18_clusterJ1_J10_J13_J14_#4more_14_0" dir="r" state="m"/>
    <connection from=":clusterJ17_J18_clusterJ1_J10_J13_J14_#4more_14" to="E2.30" fromLane="0" toLane="1" dir="r" state="m"/>